<?xml version="1.0" encoding="UTF-8"?>

<!-- generated on Qui 22 Nov 2018 17:55:22 -02 by Netedit Version 0.32.0
<?xml version="1.0" encoding="UTF-8"?>

<configuration xmlns:xsi="http://www.w3.org/2001/XMLSchema-instance" xsi:noNamespaceSchemaLocation="http://sumo.dlr.de/xsd/netconvertConfiguration.xsd">

    <input>
        <sumo-net-file value="/home/ailtono/Ailton/5GM/seasonal.net.xml"/>
    </input>

    <output>
        <output-file value="/home/ailtono/Ailton/5GM/5gm-rwi-simulation/example/sumo/seasonal.net.xml"/>
    </output>

    <processing>
        <no-internal-links value="false"/>
        <no-turnarounds value="true"/>
        <offset.disable-normalization value="true"/>
        <lefthand value="false"/>
        <junctions.corner-detail value="0"/>
        <rectangular-lane-cut value="false"/>
        <walkingareas value="false"/>
    </processing>

</configuration>
-->

<net version="0.27" xmlns:xsi="http://www.w3.org/2001/XMLSchema-instance" xsi:noNamespaceSchemaLocation="http://sumo.dlr.de/xsd/net_file.xsd">

    <location netOffset="-658.82,-358.76" convBoundary="0.00,0.00,181.26,317.14" origBoundary="658.82,358.76,840.08,675.90" projParameter="!"/>

    <edge id=":1_0" function="internal">
        <lane id=":1_0_0" index="0" allow="pedestrian" speed="13.90" length="20.19" width="2.00" shape="98.93,324.13 78.78,324.17"/>
        <lane id=":1_0_1" index="1" disallow="pedestrian" speed="13.90" length="20.19" shape="98.94,321.43 78.76,321.47"/>
        <lane id=":1_0_2" index="2" disallow="pedestrian" speed="13.90" length="20.19" shape="98.95,318.13 78.73,318.17"/>
    </edge>
    <edge id=":1_3" function="internal">
        <lane id=":1_3_0" index="0" disallow="pedestrian" speed="13.90" length="19.79" shape="98.95,318.13 93.54,317.33 89.80,314.98 87.72,311.07 87.32,305.61"/>
    </edge>
    <edge id=":1_4" function="internal">
        <lane id=":1_4_0" index="0" allow="pedestrian" speed="13.90" length="4.07" width="2.00" shape="96.60,306.26 96.68,307.38 97.11,308.18 97.88,308.67 98.99,308.83"/>
    </edge>
    <edge id=":1_5" function="internal">
        <lane id=":1_5_0" index="0" disallow="pedestrian" speed="13.90" length="8.63" shape="93.91,306.07 94.08,308.45 94.99,310.16 96.62,311.18 98.98,311.53"/>
    </edge>
    <edge id=":1_6" function="internal">
        <lane id=":1_6_0" index="0" disallow="pedestrian" speed="13.90" length="24.22" shape="93.91,306.07 92.56,312.76 89.59,317.56 84.98,320.46 78.76,321.47"/>
    </edge>
    <edge id=":1_7" function="internal">
        <lane id=":1_7_0" index="0" disallow="pedestrian" speed="13.90" length="19.19" shape="90.62,305.84 89.55,311.20 87.22,315.04 83.61,317.36 78.73,318.17"/>
    </edge>
    <edge id=":1_8" function="internal">
        <lane id=":1_8_0" index="0" allow="pedestrian" speed="13.90" length="5.05" width="2.00" shape="78.66,308.87 79.73,308.63 80.54,307.94 81.08,306.79 81.34,305.19"/>
    </edge>
    <edge id=":1_9" function="internal">
        <lane id=":1_9_0" index="0" disallow="pedestrian" speed="13.90" length="5.00" shape="78.68,311.57 80.86,311.16 82.48,310.00 82.86,309.31"/>
    </edge>
    <edge id=":1_10" function="internal">
        <lane id=":1_10_0" index="0" disallow="pedestrian" speed="13.90" length="10.07" shape="78.71,314.87 82.23,314.26 84.85,312.52 86.54,309.64"/>
    </edge>
    <edge id=":1_11" function="internal">
        <lane id=":1_11_0" index="0" disallow="pedestrian" speed="13.90" length="20.26" shape="78.71,314.87 98.97,314.83"/>
    </edge>
    <edge id=":1_12" function="internal">
        <lane id=":1_12_0" index="0" speed="13.90" length="4.15" shape="82.86,309.31 83.54,308.07 84.03,305.38"/>
    </edge>
    <edge id=":1_13" function="internal">
        <lane id=":1_13_0" index="0" speed="13.90" length="4.10" shape="86.54,309.64 87.32,305.61"/>
    </edge>
    <edge id=":1_c0" function="crossing" crossingEdges="H2 H4">
        <lane id=":1_c0_0" index="0" allow="pedestrian" speed="1.00" length="13.10" width="4.00" shape="96.99,309.92 96.94,323.02"/>
    </edge>
    <edge id=":1_c1" function="crossing" crossingEdges="V1 V2">
        <lane id=":1_c1_0" index="0" allow="pedestrian" speed="1.00" length="13.10" width="4.00" shape="82.30,307.26 95.36,308.18"/>
    </edge>
    <edge id=":1_c2" function="crossing" crossingEdges="H3 H1">
        <lane id=":1_c2_0" index="0" allow="pedestrian" speed="1.00" length="13.10" width="4.00" shape="80.77,323.05 80.67,309.95"/>
    </edge>
    <edge id=":1_w0" function="walkingarea">
        <lane id=":1_w0_0" index="0" allow="pedestrian" speed="1.00" length="12.88" width="4.00" shape="82.77,323.03 78.77,323.17 78.79,325.17 98.93,325.13 98.94,323.13 98.94,323.03 94.94,323.02"/>
    </edge>
    <edge id=":1_w1" function="walkingarea">
        <lane id=":1_w1_0" index="0" allow="pedestrian" speed="1.00" length="2.97" width="4.00" shape="94.99,309.92 98.99,309.93 98.99,309.83 98.99,307.83 97.60,306.33 95.60,306.19 95.22,310.17"/>
    </edge>
    <edge id=":1_w2" function="walkingarea">
        <lane id=":1_w2_0" index="0" allow="pedestrian" speed="1.00" length="3.51" width="4.00" shape="82.16,309.26 82.34,305.26 80.34,305.12 78.65,307.87 78.67,309.87 82.67,309.93"/>
    </edge>
    <edge id=":2_0" function="internal">
        <lane id=":2_0_0" index="0" allow="pedestrian" speed="13.90" length="15.30" width="2.00" shape="115.22,60.98 114.49,62.36 113.83,65.32 113.24,69.86 112.72,75.97"/>
    </edge>
    <edge id=":2_1" function="internal">
        <lane id=":2_1_0" index="0" disallow="pedestrian" speed="13.90" length="13.50" shape="113.56,58.85 112.41,60.63 111.43,64.05 110.64,69.10 110.39,71.80"/>
    </edge>
    <edge id=":2_2" function="internal">
        <lane id=":2_2_0" index="0" disallow="pedestrian" speed="13.90" length="16.21" shape="111.54,56.24 109.87,58.51 108.51,62.49 107.46,68.17 107.13,71.57"/>
    </edge>
    <edge id=":2_3" function="internal">
        <lane id=":2_3_0" index="0" disallow="pedestrian" speed="13.90" length="22.88" shape="111.54,56.24 106.08,60.25 102.11,62.66 97.94,64.77 91.91,67.89"/>
    </edge>
    <edge id=":2_12" function="internal">
        <lane id=":2_12_0" index="0" speed="13.90" length="4.00" shape="110.39,71.80 110.02,75.78"/>
    </edge>
    <edge id=":2_13" function="internal">
        <lane id=":2_13_0" index="0" speed="13.90" length="4.00" shape="107.13,71.57 106.73,75.55"/>
    </edge>
    <edge id=":2_4" function="internal">
        <lane id=":2_4_0" index="0" allow="pedestrian" speed="13.90" length="21.83" width="2.00" shape="87.48,59.72 93.12,56.81 97.02,54.86 100.73,52.63 105.83,48.90"/>
        <lane id=":2_4_1" index="1" disallow="pedestrian" speed="13.90" length="21.83" shape="88.77,62.09 94.52,59.12 98.49,57.12 102.29,54.84 107.49,51.03"/>
        <lane id=":2_4_2" index="2" disallow="pedestrian" speed="13.90" length="21.83" shape="90.34,64.99 96.23,61.94 100.30,59.89 104.18,57.55 109.52,53.64"/>
    </edge>
    <edge id=":2_7" function="internal">
        <lane id=":2_7_0" index="0" disallow="pedestrian" speed="13.90" length="27.21" shape="90.34,64.99 98.04,62.04 103.34,62.81 106.24,67.32 106.73,75.55"/>
    </edge>
    <edge id=":2_8" function="internal">
        <lane id=":2_8_0" index="0" allow="pedestrian" speed="13.90" length="4.46" width="2.00" shape="97.45,74.90 97.37,73.55 96.90,72.81 96.03,72.69 94.77,73.17"/>
    </edge>
    <edge id=":2_9" function="internal">
        <lane id=":2_9_0" index="0" disallow="pedestrian" speed="13.90" length="11.07" shape="100.15,75.09 99.95,71.74 98.77,69.91 96.61,69.59 93.48,70.80"/>
    </edge>
    <edge id=":2_10" function="internal">
        <lane id=":2_10_0" index="0" disallow="pedestrian" speed="13.90" length="25.69" shape="100.15,75.09 101.12,66.31 102.66,59.37 104.79,54.28 107.49,51.03"/>
    </edge>
    <edge id=":2_11" function="internal">
        <lane id=":2_11_0" index="0" disallow="pedestrian" speed="13.90" length="22.95" shape="103.44,75.32 104.29,67.24 105.59,60.93 107.33,56.39 109.52,53.64"/>
    </edge>
    <edge id=":2_c0" function="crossing" crossingEdges="H7 H10">
        <lane id=":2_c0_0" index="0" allow="pedestrian" speed="1.00" length="13.10" width="4.00" shape="104.93,50.99 112.97,61.34"/>
    </edge>
    <edge id=":2_c1" function="crossing" crossingEdges="H9 H6">
        <lane id=":2_c1_0" index="0" allow="pedestrian" speed="1.00" length="13.10" width="4.00" shape="96.00,71.25 89.76,59.73"/>
    </edge>
    <edge id=":2_c2" function="crossing" crossingEdges="V2 V1">
        <lane id=":2_c2_0" index="0" allow="pedestrian" speed="1.00" length="13.10" width="4.00" shape="111.76,73.90 98.69,72.98"/>
    </edge>
    <edge id=":2_w0" function="walkingarea">
        <lane id=":2_w0_0" index="0" allow="pedestrian" speed="1.00" length="10.06" width="4.00" shape="111.90,71.90 111.62,75.89 111.72,75.90 113.71,76.04 115.83,61.77 114.61,60.19 114.55,60.11 111.39,62.57"/>
    </edge>
    <edge id=":2_w1" function="walkingarea">
        <lane id=":2_w1_0" index="0" allow="pedestrian" speed="1.00" length="13.71" width="4.00" shape="103.35,52.22 106.45,49.69 105.22,48.11 87.00,58.84 87.96,60.60 88.00,60.68 91.52,58.78"/>
    </edge>
    <edge id=":2_w2" function="walkingarea">
        <lane id=":2_w2_0" index="0" allow="pedestrian" speed="1.00" length="3.14" width="4.00" shape="97.76,70.30 94.29,72.29 95.24,74.05 96.46,74.83 98.45,74.97 98.55,74.98 98.83,70.99"/>
    </edge>
    <edge id=":A_0" function="internal">
        <lane id=":A_0_0" index="0" allow="pedestrian" speed="13.90" length="22.34" width="2.00" shape="0.06,324.79 -5.71,321.01 -7.65,317.20 -5.77,313.36 -0.06,309.49"/>
    </edge>
    <edge id=":A_w0" function="walkingarea">
        <lane id=":A_w0_0" index="0" allow="pedestrian" speed="1.00" length="15.30" width="2.00" shape="-0.05,310.49 -0.07,308.49 0.07,325.79 0.05,323.79"/>
    </edge>
    <edge id=":B_0" function="internal">
        <lane id=":B_0_0" index="0" allow="pedestrian" speed="13.90" length="22.34" width="2.00" shape="164.42,309.08 170.14,312.93 172.04,316.76 170.11,320.58 164.36,324.38"/>
    </edge>
    <edge id=":B_w0" function="walkingarea">
        <lane id=":B_w0_0" index="0" allow="pedestrian" speed="1.00" length="15.30" width="2.00" shape="164.36,323.38 164.36,325.38 164.42,308.08 164.42,310.08"/>
    </edge>
    <edge id=":C_w0" function="walkingarea">
        <lane id=":C_w0_0" index="0" allow="pedestrian" speed="1.00" length="15.30" width="2.00" shape="3.90,91.95 3.63,89.97 5.99,107.11 5.72,105.13"/>
    </edge>
    <edge id=":D_0" function="internal">
        <lane id=":D_0_0" index="0" allow="pedestrian" speed="13.90" length="4.83" width="2.00" shape="46.13,99.51 44.59,100.32 43.49,100.79 42.32,101.07 40.60,101.32"/>
        <lane id=":D_0_1" index="1" disallow="pedestrian" speed="13.90" length="4.83" shape="44.85,97.13 43.56,97.81 42.64,98.20 41.67,98.43 40.23,98.65"/>
        <lane id=":D_0_2" index="2" disallow="pedestrian" speed="13.90" length="4.83" shape="43.28,94.23 42.30,94.75 41.61,95.04 40.87,95.22 39.78,95.38"/>
    </edge>
    <edge id=":D_3" function="internal">
        <lane id=":D_3_0" index="0" allow="pedestrian" speed="13.90" length="1.41" width="2.00" shape="38.51,86.17 38.61,86.15 38.69,86.13 38.75,86.11 38.85,86.06"/>
        <lane id=":D_3_1" index="1" disallow="pedestrian" speed="13.90" length="1.41" shape="38.88,88.84 39.27,88.78 39.53,88.72 39.78,88.61 40.13,88.43"/>
        <lane id=":D_3_2" index="2" disallow="pedestrian" speed="13.90" length="1.41" shape="39.33,92.11 40.07,92.00 40.57,91.88 41.04,91.68 41.71,91.33"/>
    </edge>
    <edge id=":D_w0" function="walkingarea">
        <lane id=":D_w0_0" index="0" allow="pedestrian" speed="1.00" length="5.82" width="2.00" shape="40.46,100.33 40.74,102.31 46.61,100.39 45.66,98.63"/>
    </edge>
    <edge id=":D_w1" function="walkingarea">
        <lane id=":D_w1_0" index="0" allow="pedestrian" speed="1.00" length="0.36" width="2.00" shape="39.32,86.93 38.37,85.18 38.37,85.18 38.65,87.16"/>
    </edge>
    <edge id=":E_w0" function="walkingarea">
        <lane id=":E_w0_0" index="0" allow="pedestrian" speed="1.00" length="15.30" width="2.00" shape="185.34,5.25 186.57,6.83 175.95,-6.83 177.18,-5.25"/>
    </edge>

    <edge id="H1" from="A" to="1" priority="3">
        <lane id="H1_0" index="0" allow="pedestrian" speed="13.90" length="78.72" width="2.00" shape="-0.06,309.49 78.66,308.87"/>
        <lane id="H1_1" index="1" disallow="pedestrian" speed="13.90" length="78.72" shape="-0.04,312.19 78.68,311.57"/>
        <lane id="H1_2" index="2" disallow="pedestrian" speed="13.90" length="78.72" shape="-0.01,315.49 78.71,314.87"/>
    </edge>
    <edge id="H10" from="E" to="2" priority="3">
        <lane id="H10_0" index="0" allow="pedestrian" speed="13.90" length="89.56" width="2.00" shape="185.95,6.04 115.22,60.98"/>
        <lane id="H10_1" index="1" disallow="pedestrian" speed="13.90" length="89.56" shape="184.30,3.91 113.56,58.85"/>
        <lane id="H10_2" index="2" disallow="pedestrian" speed="13.90" length="89.56" shape="182.27,1.30 111.54,56.24"/>
    </edge>
    <edge id="H2" from="1" to="B" priority="1">
        <lane id="H2_0" index="0" allow="pedestrian" speed="13.90" length="65.43" width="2.00" shape="98.99,308.83 164.42,309.08"/>
        <lane id="H2_1" index="1" disallow="pedestrian" speed="13.90" length="65.43" shape="98.98,311.53 164.41,311.78"/>
        <lane id="H2_2" index="2" disallow="pedestrian" speed="13.90" length="65.43" shape="98.97,314.83 164.40,315.08"/>
    </edge>
    <edge id="H3" from="1" to="A" priority="1">
        <lane id="H3_0" index="0" allow="pedestrian" speed="13.90" length="78.72" width="2.00" shape="78.78,324.17 0.06,324.79"/>
        <lane id="H3_1" index="1" disallow="pedestrian" speed="13.90" length="78.72" shape="78.76,321.47 0.04,322.09"/>
        <lane id="H3_2" index="2" disallow="pedestrian" speed="13.90" length="78.72" shape="78.73,318.17 0.01,318.79"/>
    </edge>
    <edge id="H4" from="B" to="1" priority="1">
        <lane id="H4_0" index="0" allow="pedestrian" speed="13.90" length="65.43" width="2.00" shape="164.36,324.38 98.93,324.13"/>
        <lane id="H4_1" index="1" disallow="pedestrian" speed="13.90" length="65.43" shape="164.37,321.68 98.94,321.43"/>
        <lane id="H4_2" index="2" disallow="pedestrian" speed="13.90" length="65.43" shape="164.38,318.38 98.95,318.13"/>
    </edge>
    <edge id="H5" from="C" to="D" priority="1">
        <lane id="H5_0" index="0" allow="pedestrian" speed="13.90" length="35.07" width="2.00" shape="3.76,90.96 38.51,86.17"/>
        <lane id="H5_1" index="1" disallow="pedestrian" speed="13.90" length="35.07" shape="4.13,93.64 38.88,88.84"/>
        <lane id="H5_2" index="2" disallow="pedestrian" speed="13.90" length="35.07" shape="4.58,96.91 39.33,92.11"/>
    </edge>
    <edge id="H6" from="D" to="2" priority="1">
        <lane id="H6_0" index="0" allow="pedestrian" speed="13.90" length="55.31" width="2.00" shape="38.85,86.06 87.48,59.72"/>
        <lane id="H6_1" index="1" disallow="pedestrian" speed="13.90" length="55.31" shape="40.13,88.43 88.77,62.09"/>
        <lane id="H6_2" index="2" disallow="pedestrian" speed="13.90" length="55.31" shape="41.71,91.33 90.34,64.99"/>
    </edge>
    <edge id="H7" from="2" to="E" priority="1">
        <lane id="H7_0" index="0" allow="pedestrian" speed="13.90" length="89.56" width="2.00" shape="105.83,48.90 176.57,-6.04"/>
        <lane id="H7_1" index="1" disallow="pedestrian" speed="13.90" length="89.56" shape="107.49,51.03 178.22,-3.91"/>
        <lane id="H7_2" index="2" disallow="pedestrian" speed="13.90" length="89.56" shape="109.52,53.64 180.25,-1.30"/>
    </edge>
    <edge id="H8" from="D" to="C" priority="1">
        <lane id="H8_0" index="0" allow="pedestrian" speed="13.90" length="35.07" width="2.00" shape="40.60,101.32 5.86,106.12"/>
        <lane id="H8_1" index="1" disallow="pedestrian" speed="13.90" length="35.07" shape="40.23,98.65 5.49,103.44"/>
        <lane id="H8_2" index="2" disallow="pedestrian" speed="13.90" length="35.07" shape="39.78,95.38 5.04,100.17"/>
    </edge>
    <edge id="H9" from="2" to="D" priority="1">
        <lane id="H9_0" index="0" allow="pedestrian" speed="13.90" length="55.31" width="2.00" shape="94.77,73.17 46.13,99.51"/>
        <lane id="H9_1" index="1" disallow="pedestrian" speed="13.90" length="55.31" shape="93.48,70.80 44.85,97.13"/>
        <lane id="H9_2" index="2" disallow="pedestrian" speed="13.90" length="55.31" shape="91.91,67.89 43.28,94.23"/>
    </edge>
    <edge id="V1" from="1" to="2" priority="2">
        <lane id="V1_0" index="0" allow="pedestrian" speed="13.90" length="230.85" width="2.00" shape="81.34,305.19 97.45,74.90"/>
        <lane id="V1_1" index="1" disallow="pedestrian" speed="13.90" length="230.85" shape="84.03,305.38 100.15,75.09"/>
        <lane id="V1_2" index="2" disallow="pedestrian" speed="13.90" length="230.85" shape="87.32,305.61 103.44,75.32"/>
    </edge>
    <edge id="V2" from="2" to="1" priority="2">
        <lane id="V2_0" index="0" allow="pedestrian" speed="13.90" length="230.85" width="2.00" shape="112.72,75.97 96.60,306.26"/>
        <lane id="V2_1" index="1" disallow="pedestrian" speed="13.90" length="230.85" shape="110.02,75.78 93.91,306.07"/>
        <lane id="V2_2" index="2" disallow="pedestrian" speed="13.90" length="230.85" shape="106.73,75.55 90.62,305.84"/>
    </edge>

    <junction id="1" type="priority" x="88.22" y="316.44" incLanes="H4_0 H4_1 H4_2 V2_0 V2_1 V2_2 H1_0 H1_1 H1_2 :1_w1_0 :1_w2_0 :1_w0_0" intLanes=":1_0_0 :1_0_1 :1_0_2 :1_3_0 :1_4_0 :1_5_0 :1_6_0 :1_7_0 :1_8_0 :1_12_0 :1_13_0 :1_11_0 :1_c0_0 :1_c1_0 :1_c2_0" shape="98.93,325.13 98.99,307.83 97.60,306.33 80.34,305.12 78.65,307.87 78.79,325.17">
        <request index="0" response="000000000000000" foes="101000011000000" cont="0"/>
        <request index="1" response="000000000000000" foes="101000011000000" cont="0"/>
        <request index="2" response="000000000000000" foes="101000011000000" cont="0"/>
        <request index="3" response="010111100000000" foes="011111111000000" cont="0"/>
        <request index="4" response="001000000000000" foes="011000000000000" cont="0"/>
        <request index="5" response="001000000000000" foes="011000000000000" cont="0"/>
        <request index="6" response="100100000001111" foes="110100000001111" cont="0"/>
        <request index="7" response="100100000001111" foes="110100000001111" cont="0"/>
        <request index="8" response="010000000000000" foes="110000000001000" cont="0"/>
        <request index="9" response="010000000000000" foes="110000000001000" cont="1"/>
        <request index="10" response="010000000000000" foes="110000000001000" cont="1"/>
        <request index="11" response="000000000000000" foes="101000011001000" cont="0"/>
        <request index="12" response="000100000001111" foes="000100000111111" cont="0"/>
        <request index="13" response="000000011110000" foes="000011111111000" cont="0"/>
        <request index="14" response="000111100000111" foes="000111111000111" cont="0"/>
    </junction>
    <junction id="2" type="priority" x="106.29" y="58.23" incLanes="H10_0 H10_1 H10_2 H6_0 H6_1 H6_2 V1_0 V1_1 V1_2 :2_w1_0 :2_w2_0 :2_w0_0" intLanes=":2_0_0 :2_12_0 :2_13_0 :2_3_0 :2_4_0 :2_4_1 :2_4_2 :2_7_0 :2_8_0 :2_9_0 :2_10_0 :2_11_0 :2_c0_0 :2_c1_0 :2_c2_0" shape="115.83,61.77 105.22,48.11 87.00,58.84 95.24,74.05 96.46,74.83 113.71,76.04">
        <request index="0" response="100000000000000" foes="101000010000000" cont="0"/>
        <request index="1" response="100000000000000" foes="101000010000000" cont="1"/>
        <request index="2" response="100000000000000" foes="101000010000000" cont="1"/>
        <request index="3" response="000000000000000" foes="011110010000000" cont="0"/>
        <request index="4" response="000000000000000" foes="011110000000000" cont="0"/>
        <request index="5" response="000000000000000" foes="011110000000000" cont="0"/>
        <request index="6" response="000000000000000" foes="011110000000000" cont="0"/>
        <request index="7" response="100000000001111" foes="110110000001111" cont="0"/>
        <request index="8" response="010000000000000" foes="110000000000000" cont="0"/>
        <request index="9" response="010000000000000" foes="110000000000000" cont="0"/>
        <request index="10" response="001000011111000" foes="101000011111000" cont="0"/>
        <request index="11" response="001000011111000" foes="101000011111000" cont="0"/>
        <request index="12" response="000000001111111" foes="000110001111111" cont="0"/>
        <request index="13" response="000000011111000" foes="000001111111000" cont="0"/>
        <request index="14" response="000111100000000" foes="000111110000111" cont="0"/>
    </junction>
    <junction id="A" type="priority" x="0.00" y="317.14" incLanes="H3_0 H3_1 H3_2" intLanes=":A_0_0" shape="-0.00,317.09 0.07,325.79 0.00,317.19">
        <request index="0" response="0" foes="0" cont="0"/>
    </junction>
    <junction id="B" type="priority" x="164.39" y="316.73" incLanes="H2_0 H2_1 H2_2" intLanes=":B_0_0" shape="164.39,316.78 164.42,308.08 164.39,316.68">
        <request index="0" response="0" foes="0" cont="0"/>
    </junction>
    <junction id="C" type="dead_end" x="4.81" y="98.54" incLanes="H8_0 H8_1 H8_2" intLanes="" shape="4.80,98.49 5.99,107.11 4.82,98.59"/>
    <junction id="D" type="priority" x="41.11" y="93.53" incLanes="H9_0 H9_1 H9_2 H5_0 H5_1 H5_2" intLanes=":D_0_0 :D_0_1 :D_0_2 :D_3_0 :D_3_1 :D_3_2" shape="46.61,100.39 38.37,85.18 40.74,102.31">
        <request index="0" response="000000" foes="000000" cont="0"/>
        <request index="1" response="000000" foes="000000" cont="0"/>
        <request index="2" response="000000" foes="000000" cont="0"/>
        <request index="3" response="000000" foes="000000" cont="0"/>
        <request index="4" response="000000" foes="000000" cont="0"/>
        <request index="5" response="000000" foes="000000" cont="0"/>
    </junction>
    <junction id="E" type="dead_end" x="181.26" y="0.00" incLanes="H7_0 H7_1 H7_2" intLanes="" shape="181.29,0.04 175.95,-6.83 181.23,-0.04"/>

    <junction id=":1_12_0" type="internal" x="82.86" y="309.31" incLanes=":1_9_0" intLanes=":1_3_0 :1_c1_0 :1_c2_0"/>
    <junction id=":1_13_0" type="internal" x="86.54" y="309.64" incLanes=":1_10_0" intLanes=":1_3_0 :1_c1_0 :1_c2_0"/>
    <junction id=":2_12_0" type="internal" x="110.39" y="71.80" incLanes=":2_1_0" intLanes=":2_7_0 :2_c0_0 :2_c2_0"/>
    <junction id=":2_13_0" type="internal" x="107.13" y="71.57" incLanes=":2_2_0" intLanes=":2_7_0 :2_c0_0 :2_c2_0"/>

    <connection from="H1" to="V1" fromLane="0" toLane="0" via=":1_8_0" dir="r" state="m"/>
    <connection from="H1" to="V1" fromLane="1" toLane="1" via=":1_9_0" dir="r" state="m"/>
    <connection from="H1" to="V1" fromLane="2" toLane="2" via=":1_10_0" dir="r" state="m"/>
    <connection from="H1" to="H2" fromLane="2" toLane="2" via=":1_11_0" dir="s" state="M"/>
    <connection from="H10" to="V2" fromLane="0" toLane="0" via=":2_0_0" dir="r" state="m"/>
    <connection from="H10" to="V2" fromLane="1" toLane="1" via=":2_1_0" dir="r" state="m"/>
    <connection from="H10" to="V2" fromLane="2" toLane="2" via=":2_2_0" dir="r" state="m"/>
    <connection from="H10" to="H9" fromLane="2" toLane="2" via=":2_3_0" dir="s" state="M"/>
    <connection from="H2" to="H4" fromLane="0" toLane="0" via=":B_0_0" dir="t" state="M"/>
    <connection from="H3" to="H1" fromLane="0" toLane="0" via=":A_0_0" dir="t" state="M"/>
    <connection from="H4" to="H3" fromLane="0" toLane="0" via=":1_0_0" dir="s" state="M"/>
    <connection from="H4" to="H3" fromLane="1" toLane="1" via=":1_0_1" dir="s" state="M"/>
    <connection from="H4" to="H3" fromLane="2" toLane="2" via=":1_0_2" dir="s" state="M"/>
    <connection from="H4" to="V1" fromLane="2" toLane="2" via=":1_3_0" dir="l" state="m"/>
    <connection from="H5" to="H6" fromLane="0" toLane="0" via=":D_3_0" dir="s" state="M"/>
    <connection from="H5" to="H6" fromLane="1" toLane="1" via=":D_3_1" dir="s" state="M"/>
    <connection from="H5" to="H6" fromLane="2" toLane="2" via=":D_3_2" dir="s" state="M"/>
    <connection from="H6" to="H7" fromLane="0" toLane="0" via=":2_4_0" dir="s" state="M"/>
    <connection from="H6" to="H7" fromLane="1" toLane="1" via=":2_4_1" dir="s" state="M"/>
    <connection from="H6" to="H7" fromLane="2" toLane="2" via=":2_4_2" dir="s" state="M"/>
    <connection from="H6" to="V2" fromLane="2" toLane="2" via=":2_7_0" dir="l" state="m"/>
    <connection from="H9" to="H8" fromLane="0" toLane="0" via=":D_0_0" dir="s" state="M"/>
    <connection from="H9" to="H8" fromLane="1" toLane="1" via=":D_0_1" dir="s" state="M"/>
    <connection from="H9" to="H8" fromLane="2" toLane="2" via=":D_0_2" dir="s" state="M"/>
    <connection from="V1" to="H9" fromLane="0" toLane="0" via=":2_8_0" dir="r" state="m"/>
    <connection from="V1" to="H9" fromLane="1" toLane="1" via=":2_9_0" dir="r" state="m"/>
    <connection from="V1" to="H7" fromLane="1" toLane="1" via=":2_10_0" dir="l" state="m"/>
    <connection from="V1" to="H7" fromLane="2" toLane="2" via=":2_11_0" dir="l" state="m"/>
    <connection from="V2" to="H2" fromLane="0" toLane="0" via=":1_4_0" dir="r" state="m"/>
    <connection from="V2" to="H2" fromLane="1" toLane="1" via=":1_5_0" dir="r" state="m"/>
    <connection from="V2" to="H3" fromLane="1" toLane="1" via=":1_6_0" dir="l" state="m"/>
    <connection from="V2" to="H3" fromLane="2" toLane="2" via=":1_7_0" dir="l" state="m"/>

    <connection from=":1_0" to="H3" fromLane="0" toLane="0" dir="s" state="M"/>
    <connection from=":1_0" to="H3" fromLane="1" toLane="1" dir="s" state="M"/>
    <connection from=":1_0" to="H3" fromLane="2" toLane="2" dir="s" state="M"/>
    <connection from=":1_3" to="V1" fromLane="0" toLane="2" dir="l" state="M"/>
    <connection from=":1_4" to="H2" fromLane="0" toLane="0" dir="r" state="M"/>
    <connection from=":1_5" to="H2" fromLane="0" toLane="1" dir="r" state="M"/>
    <connection from=":1_6" to="H3" fromLane="0" toLane="1" dir="l" state="M"/>
    <connection from=":1_7" to="H3" fromLane="0" toLane="2" dir="l" state="M"/>
    <connection from=":1_8" to="V1" fromLane="0" toLane="0" dir="r" state="M"/>
    <connection from=":1_9" to="V1" fromLane="0" toLane="1" via=":1_12_0" dir="r" state="m"/>
    <connection from=":1_12" to="V1" fromLane="0" toLane="1" dir="r" state="M"/>
    <connection from=":1_10" to="V1" fromLane="0" toLane="2" via=":1_13_0" dir="r" state="m"/>
    <connection from=":1_13" to="V1" fromLane="0" toLane="2" dir="r" state="M"/>
    <connection from=":1_11" to="H2" fromLane="0" toLane="2" dir="s" state="M"/>
    <connection from=":2_0" to="V2" fromLane="0" toLane="0" dir="r" state="M"/>
    <connection from=":2_1" to="V2" fromLane="0" toLane="1" via=":2_12_0" dir="r" state="m"/>
    <connection from=":2_12" to="V2" fromLane="0" toLane="1" dir="r" state="M"/>
    <connection from=":2_2" to="V2" fromLane="0" toLane="2" via=":2_13_0" dir="r" state="m"/>
    <connection from=":2_13" to="V2" fromLane="0" toLane="2" dir="r" state="M"/>
    <connection from=":2_3" to="H9" fromLane="0" toLane="2" dir="s" state="M"/>
    <connection from=":2_4" to="H7" fromLane="0" toLane="0" dir="s" state="M"/>
    <connection from=":2_4" to="H7" fromLane="1" toLane="1" dir="s" state="M"/>
    <connection from=":2_4" to="H7" fromLane="2" toLane="2" dir="s" state="M"/>
    <connection from=":2_7" to="V2" fromLane="0" toLane="2" dir="l" state="M"/>
    <connection from=":2_8" to="H9" fromLane="0" toLane="0" dir="r" state="M"/>
    <connection from=":2_9" to="H9" fromLane="0" toLane="1" dir="r" state="M"/>
    <connection from=":2_10" to="H7" fromLane="0" toLane="1" dir="l" state="M"/>
    <connection from=":2_11" to="H7" fromLane="0" toLane="2" dir="l" state="M"/>
    <connection from=":A_0" to="H1" fromLane="0" toLane="0" dir="t" state="M"/>
    <connection from=":B_0" to="H4" fromLane="0" toLane="0" dir="t" state="M"/>
    <connection from=":D_0" to="H8" fromLane="0" toLane="0" dir="s" state="M"/>
    <connection from=":D_0" to="H8" fromLane="1" toLane="1" dir="s" state="M"/>
    <connection from=":D_0" to="H8" fromLane="2" toLane="2" dir="s" state="M"/>
    <connection from=":D_3" to="H6" fromLane="0" toLane="0" dir="s" state="M"/>
    <connection from=":D_3" to="H6" fromLane="1" toLane="1" dir="s" state="M"/>
    <connection from=":D_3" to="H6" fromLane="2" toLane="2" dir="s" state="M"/>

    <connection from=":1_c0" to=":1_w0" fromLane="0" toLane="0" dir="s" state="M"/>
    <connection from=":1_c1" to=":1_w1" fromLane="0" toLane="0" dir="s" state="M"/>
    <connection from=":1_c2" to=":1_w2" fromLane="0" toLane="0" dir="s" state="M"/>
    <connection from=":1_w0" to=":1_c2" fromLane="0" toLane="0" dir="s" state="m"/>
    <connection from=":1_w0" to="H3" fromLane="0" toLane="0" dir="s" state="M"/>
    <connection from="H4" to=":1_w0" fromLane="0" toLane="0" dir="s" state="M"/>
    <connection from=":1_w1" to=":1_c0" fromLane="0" toLane="0" dir="s" state="m"/>
    <connection from=":1_w1" to="H2" fromLane="0" toLane="0" dir="s" state="M"/>
    <connection from="V2" to=":1_w1" fromLane="0" toLane="0" dir="s" state="M"/>
    <connection from=":1_w2" to=":1_c1" fromLane="0" toLane="0" dir="s" state="m"/>
    <connection from=":1_w2" to="V1" fromLane="0" toLane="0" dir="s" state="M"/>
    <connection from="H1" to=":1_w2" fromLane="0" toLane="0" dir="s" state="M"/>
    <connection from=":2_c0" to=":2_w0" fromLane="0" toLane="0" dir="s" state="M"/>
    <connection from=":2_c1" to=":2_w1" fromLane="0" toLane="0" dir="s" state="M"/>
    <connection from=":2_c2" to=":2_w2" fromLane="0" toLane="0" dir="s" state="M"/>
    <connection from=":2_w0" to=":2_c2" fromLane="0" toLane="0" dir="s" state="m"/>
    <connection from=":2_w0" to="V2" fromLane="0" toLane="0" dir="s" state="M"/>
    <connection from="H10" to=":2_w0" fromLane="0" toLane="0" dir="s" state="M"/>